Circuit: * C:\Users\stride\Documents\GitHub\Clock-Module\clock_pcb\sim\buzzer2.asc

Limiting rise time of source v3 to 2.5e-05
Limiting fall time of source v3 to 2.5e-05
WARNING: Less than two connections to node n002.  This node is used by v1.
Instance "m:m1:2": Length shorter than recommended for a level 3 MOSFET.
Direct Newton iteration for .op point succeeded.

Date: Thu May  8 13:06:38 2025
Total elapsed time: 0.126 seconds.

tnom = 27
temp = 27
method = modified trap
totiter = 4508
traniter = 4502
tranpoints = 1753
accept = 1255
rejected = 498
matrix size = 11
fillins = 0
solver = Normal
Avg thread counts: 2.3/4.3/4.4/2.3
Matrix Compiler1: 520 bytes object code size  0.1/0.1/[0.1]
Matrix Compiler2: off  [0.1]/0.1/0.1

